
  1019              3D

 26 25  0  0  0  0  0  0  0  0999 V2000
   -6.6648    0.6525   -0.2379 C   0  0  0  0  0  0  0  0  0  0  0  0
    4.8473    3.2646   -0.4981 C   0  0  0  0  0  0  0  0  0  0  0  0
   -5.5419   -0.0530   -0.0650 C   0  0  0  0  0  0  0  0  0  0  0  0
    4.5901    2.0741    0.0546 C   0  0  0  0  0  0  0  0  0  0  0  0
   -4.2282    0.5451   -0.0362 C   0  0  0  0  0  0  0  0  0  0  0  0
    3.2787    1.4770    0.0620 C   0  0  0  0  0  0  0  0  0  0  0  0
   -3.1952   -0.0001    0.6224 C   0  0  0  0  0  0  0  0  0  0  0  0
    2.9868    0.3540    0.7363 C   0  0  0  0  0  0  0  0  0  0  0  0
   -1.8764    0.5912    0.6377 C   0  0  0  0  0  0  0  0  0  0  0  0
    1.6663   -0.2360    0.7533 C   0  0  0  0  0  0  0  0  0  0  0  0
   -0.7717   -0.1085    0.9348 C   0  0  0  0  0  0  0  0  0  0  0  0
    0.5457    0.4783    0.9382 C   0  0  0  0  0  0  0  0  0  0  0  0
   -7.6275    0.1530   -0.2595 H   0  0  0  0  0  0  0  0  0  0  0  0
   -6.6541    1.7298   -0.3660 H   0  0  0  0  0  0  0  0  0  0  0  0
   -5.6080   -1.1315    0.0510 H   0  0  0  0  0  0  0  0  0  0  0  0
   -4.0975    1.4741   -0.5863 H   0  0  0  0  0  0  0  0  0  0  0  0
   -3.3266   -0.9318    1.1681 H   0  0  0  0  0  0  0  0  0  0  0  0
   -1.8038    1.6482    0.3904 H   0  0  0  0  0  0  0  0  0  0  0  0
   -0.8406   -1.1646    1.1819 H   0  0  0  0  0  0  0  0  0  0  0  0
    5.8526    3.6697   -0.4778 H   0  0  0  0  0  0  0  0  0  0  0  0
    4.0750    3.8562   -0.9787 H   0  0  0  0  0  0  0  0  0  0  0  0
    5.3994    1.5230    0.5244 H   0  0  0  0  0  0  0  0  0  0  0  0
    2.4993    1.9902   -0.4976 H   0  0  0  0  0  0  0  0  0  0  0  0
    3.7574   -0.1659    1.3004 H   0  0  0  0  0  0  0  0  0  0  0  0
    1.6165   -1.3133    0.6129 H   0  0  0  0  0  0  0  0  0  0  0  0
    0.6065    1.5559    1.0765 H   0  0  0  0  0  0  0  0  0  0  0  0
  1  3  2  0  0  0  0
  2  4  2  0  0  0  0
  3  5  1  0  0  0  0
  4  6  1  0  0  0  0
  5  7  2  0  0  0  0
  6  8  2  0  0  0  0
  7  9  1  0  0  0  0
  8 10  1  0  0  0  0
  9 11  2  0  0  0  0
 10 12  2  0  0  0  0
 11 12  1  0  0  0  0
  1 13  1  0  0  0  0
  1 14  1  0  0  0  0
  3 15  1  0  0  0  0
  5 16  1  0  0  0  0
  7 17  1  0  0  0  0
  9 18  1  0  0  0  0
 11 19  1  0  0  0  0
  2 20  1  0  0  0  0
  2 21  1  0  0  0  0
  4 22  1  0  0  0  0
  6 23  1  0  0  0  0
  8 24  1  0  0  0  0
 10 25  1  0  0  0  0
 12 26  1  0  0  0  0
M  END

> <energy>
19.317122465212776

> <StdInChI>
InChI=1S/C12H14/c1-3-5-7-9-11-12-10-8-6-4-2/h3-12H,1-2H2/b7-5+,8-6+,11-9+,12-10+

> <StdInChIKey>
GLCGEJFIZRSXBL-HCNIIHBUSA-N

> <AuxInfo>
1/0/N:1,2,3,4,5,6,7,8,9,10,11,12/E:(1,2)(3,4)(5,6)(7,8)(9,10)(11,12)/rA:26nCCCCCCCCCCCCHHHHHHHHHHHHHH/rB:;d1;d2;s3;s4;d5;d6;s7;s8;d9;d10s11;s1;s1;s3;s5;s7;s9;s11;s2;s2;s4;s6;s8;s10;s12;/rC:-6.6648,.6525,-.2379;4.8473,3.2646,-.4981;-5.5419,-.053,-.065;4.5901,2.0741,.0546;-4.2282,.5451,-.0362;3.2787,1.477,.062;-3.1952,-.0001,.6224;2.9868,.354,.7363;-1.8764,.5912,.6377;1.6663,-.236,.7533;-.7717,-.1085,.9348;.5457,.4783,.9382;-7.6275,.153,-.2595;-6.6541,1.7298,-.366;-5.608,-1.1315,.051;-4.0975,1.4741,-.5863;-3.3266,-.9318,1.1681;-1.8038,1.6482,.3904;-.8406,-1.1646,1.1819;5.8526,3.6697,-.4778;4.075,3.8562,-.9787;5.3994,1.523,.5244;2.4993,1.9902,-.4976;3.7574,-.1659,1.3004;1.6165,-1.3133,.6129;.6065,1.5559,1.0765;

> <Formula>
C12 H14

> <Mw>
158.2396

> <SMILES>
C([H])([H])=C([H])/C(/[H])=C(\[H])/C(/[H])=C(\[H])/C(/[H])=C(\[H])/C(/[H])=C(\[H])/C([H])=C([H])[H]

> <CSID>
29316890

$$$$
