123286
  Marvin  01010805553D          

  4  6  0  0  0  0            999 V2000
   -0.8850   -0.5110   -0.3613 P   0  0  0  0  0  0  0  0  0  0  0  0
    0.8850   -0.5110   -0.3613 P   0  0  0  0  0  0  0  0  0  0  0  0
    0.0000    1.0219   -0.3613 P   0  0  0  0  0  0  0  0  0  0  0  0
    0.0000    0.0000    1.0839 P   0  0  0  0  0  0  0  0  0  0  0  0
  1  2  1  0  0  0  0
  1  3  1  0  0  0  0
  1  4  1  0  0  0  0
  2  3  1  0  0  0  0
  2  4  1  0  0  0  0
  3  4  1  0  0  0  0
M  END

> <PUBCHEM_BONDANNOTATIONS>
1  2  8
1  3  8
1  4  8
2  3  8
2  4  8
3  4  8

> <StdInChI>
InChI=1S/P4/c1-2-3(1)4(1)2/t1-,2+,3-,4+

> <StdInChIKey>
OBSZRRSYVTXPNB-GNSDDBTRSA-N

> <AuxInfo>
1/0/N:4,3,1,2/E:(1,2,3,4)/rA:4nPPPP/rB:s1;s1s2;s1s2s3;/rC:-.885,-.511,-.3613;.885,-.511,-.3613;0,1.0219,-.3613;0,0,1.0839;

> <Formula>
P4

> <Mw>
123.895

> <SMILES>
[P@]12[P@@]3[P@]1[P@]23

> <CSID>
109894

$$$$
