66868
  Marvin  12310720203D          

 38 42  0  0  0  0            999 V2000
   -1.1898    1.7043   -0.0943 N   0  0  0  0  0  0  0  0  0  0  0  0
   -1.6698   -1.2566   -0.0796 N   0  0  0  0  0  0  0  0  0  0  0  0
    1.7444    1.2296    0.0367 N   0  0  0  0  0  0  0  0  0  0  0  0
    1.2694   -1.7035    0.0783 N   0  0  0  0  0  0  0  0  0  0  0  0
   -2.5340    1.6612   -0.1349 C   0  0  0  0  0  0  0  0  0  0  0  0
   -2.9327   -0.7978   -0.1388 C   0  0  0  0  0  0  0  0  0  0  0  0
   -0.7363    2.9697   -0.0884 C   0  0  0  0  0  0  0  0  0  0  0  0
   -1.6325   -2.5992   -0.0567 C   0  0  0  0  0  0  0  0  0  0  0  0
   -3.3637    0.5337   -0.1609 C   0  0  0  0  0  0  0  0  0  0  0  0
   -2.9769    2.9820   -0.1492 C   0  0  0  0  0  0  0  0  0  0  0  0
   -3.7646   -1.9152   -0.1687 C   0  0  0  0  0  0  0  0  0  0  0  0
   -1.8561    3.7976   -0.1216 C   0  0  0  0  0  0  0  0  0  0  0  0
   -2.9531   -3.0388   -0.1192 C   0  0  0  0  0  0  0  0  0  0  0  0
    0.5941    3.4033   -0.0546 C   0  0  0  0  0  0  0  0  0  0  0  0
   -0.5003   -3.4183    0.0269 C   0  0  0  0  0  0  0  0  0  0  0  0
    1.7225    2.5752    0.0015 C   0  0  0  0  0  0  0  0  0  0  0  0
    0.8267   -2.9752    0.1010 C   0  0  0  0  0  0  0  0  0  0  0  0
    3.0132    0.7868    0.1059 C   0  0  0  0  0  0  0  0  0  0  0  0
    2.6124   -1.6748    0.1700 C   0  0  0  0  0  0  0  0  0  0  0  0
    3.4410   -0.5456    0.1747 C   0  0  0  0  0  0  0  0  0  0  0  0
    3.0406    3.0227    0.0413 C   0  0  0  0  0  0  0  0  0  0  0  0
    1.9375   -3.8073    0.2181 C   0  0  0  0  0  0  0  0  0  0  0  0
    3.8504    1.9003    0.1076 C   0  0  0  0  0  0  0  0  0  0  0  0
    3.0566   -2.9922    0.2624 C   0  0  0  0  0  0  0  0  0  0  0  0
   -4.3748    0.6971   -0.1983 H   0  0  0  0  0  0  0  0  0  0  0  0
   -0.6136    0.9267   -0.0748 H   0  0  0  0  0  0  0  0  0  0  0  0
   -0.8812   -0.6963   -0.0513 H   0  0  0  0  0  0  0  0  0  0  0  0
   -3.9476    3.2993   -0.1754 H   0  0  0  0  0  0  0  0  0  0  0  0
   -4.7851   -1.9149   -0.2154 H   0  0  0  0  0  0  0  0  0  0  0  0
   -1.8586    4.8189   -0.1244 H   0  0  0  0  0  0  0  0  0  0  0  0
   -3.2731   -4.0088   -0.1237 H   0  0  0  0  0  0  0  0  0  0  0  0
    0.7544    4.4150   -0.0676 H   0  0  0  0  0  0  0  0  0  0  0  0
   -0.6599   -4.4299    0.0411 H   0  0  0  0  0  0  0  0  0  0  0  0
    4.4506   -0.7074    0.2371 H   0  0  0  0  0  0  0  0  0  0  0  0
    3.3588    3.9933    0.0282 H   0  0  0  0  0  0  0  0  0  0  0  0
    1.9357   -4.8276    0.2661 H   0  0  0  0  0  0  0  0  0  0  0  0
    4.8710    1.9002    0.1520 H   0  0  0  0  0  0  0  0  0  0  0  0
    4.0242   -3.3077    0.3490 H   0  0  0  0  0  0  0  0  0  0  0  0
  1  5  1  0  0  0  0
  1  7  1  0  0  0  0
  1 26  1  0  0  0  0
  2  6  1  0  0  0  0
  2  8  1  0  0  0  0
  2 27  1  0  0  0  0
  3 16  2  0  0  0  0
  3 18  1  0  0  0  0
  4 17  1  0  0  0  0
  4 19  2  0  0  0  0
  5  9  2  0  0  0  0
  5 10  1  0  0  0  0
  6  9  1  0  0  0  0
  6 11  2  0  0  0  0
  7 12  1  0  0  0  0
  7 14  2  0  0  0  0
  8 13  2  0  0  0  0
  8 15  1  0  0  0  0
  9 25  1  0  0  0  0
 10 12  2  0  0  0  0
 10 28  1  0  0  0  0
 11 13  1  0  0  0  0
 11 29  1  0  0  0  0
 12 30  1  0  0  0  0
 13 31  1  0  0  0  0
 14 16  1  0  0  0  0
 14 32  1  0  0  0  0
 15 17  2  0  0  0  0
 15 33  1  0  0  0  0
 16 21  1  0  0  0  0
 17 22  1  0  0  0  0
 18 20  2  0  0  0  0
 18 23  1  0  0  0  0
 19 20  1  0  0  0  0
 19 24  1  0  0  0  0
 20 34  1  0  0  0  0
 21 23  2  0  0  0  0
 21 35  1  0  0  0  0
 22 24  2  0  0  0  0
 22 36  1  0  0  0  0
 23 37  1  0  0  0  0
 24 38  1  0  0  0  0
M  END

> <PUBCHEM_BONDANNOTATIONS>
1  5  8
1  7  8
10  12  8
11  13  8
14  16  8
15  17  8
18  20  8
19  20  8
2  6  8
2  8  8
3  16  8
3  18  8
4  17  8
4  19  8
5  10  8
5  9  8
6  11  8
6  9  8
7  12  8
7  14  8
8  13  8
8  15  8

> <StdInChI>
InChI=1S/C20H14N4/c1-2-14-10-16-5-6-18(23-16)12-20-8-7-19(24-20)11-17-4-3-15(22-17)9-13(1)21-14/h1-12,21-22H/b13-9-,14-10-,15-9-,16-10-,17-11-,18-12-,19-11-,20-12-

> <StdInChIKey>
JZRYQZJSTWVBBD-CEVVSZFKSA-N

> <AuxInfo>
1/0/N:10,12,11,13,21,23,22,24,9,14,15,20,5,7,6,16,8,18,17,19,1,2,3,4/E:(1,3)(2,4)(5,7)(6,8)(10,11)(13,15)(14,17)(16,19)(18,20)(21,22)(23,24)/rA:38nNNNNCCCCCCCCCCCCCCCCCCCCHHHHHHHHHHHHHH/rB:;;;s1;s2;s1;s2;d5s6;s5;d6;s7d10;d8s11;d7;s8;d3s14;s4d15;s3;d4;d18s19;s16;s17;s18d21;s19d22;s9;s1;s2;s10;s11;s12;s13;s14;s15;s20;s21;s22;s23;s24;/rC:-1.1898,1.7043,-.0943;-1.6698,-1.2566,-.0796;1.7444,1.2296,.0367;1.2694,-1.7035,.0783;-2.534,1.6612,-.1349;-2.9327,-.7978,-.1388;-.7363,2.9697,-.0884;-1.6325,-2.5992,-.0567;-3.3637,.5337,-.1609;-2.9769,2.982,-.1492;-3.7646,-1.9152,-.1687;-1.8561,3.7976,-.1216;-2.9531,-3.0388,-.1192;.5941,3.4033,-.0546;-.5003,-3.4183,.0269;1.7225,2.5752,.0015;.8267,-2.9752,.101;3.0132,.7868,.1059;2.6124,-1.6748,.17;3.441,-.5456,.1747;3.0406,3.0227,.0413;1.9375,-3.8073,.2181;3.8504,1.9003,.1076;3.0566,-2.9922,.2624;-4.3748,.6971,-.1983;-.6136,.9267,-.0748;-.8812,-.6963,-.0513;-3.9476,3.2993,-.1754;-4.7851,-1.9149,-.2154;-1.8586,4.8189,-.1244;-3.2731,-4.0088,-.1237;.7544,4.415,-.0676;-.6599,-4.4299,.0411;4.4506,-.7074,.2371;3.3588,3.9933,.0282;1.9357,-4.8276,.2661;4.871,1.9002,.152;4.0242,-3.3077,.349;

> <Formula>
C20 H14 N4

> <Mw>
310.352

> <SMILES>
N1([H])C2=C([H])C3C([H])=C([H])C(=C([H])C4C([H])=C([H])C(=C([H])C5=C([H])C([H])=C(C([H])=C1C([H])=C2[H])N5[H])N=4)N=3 |c:10,18,28,t:2|

> <CSID>
60231

$$$$
