16695
  Marvin  12300703363D          

 14 13  0  0  0  0            999 V2000
    0.6725   -0.0200   -0.0000 C   0  0  0  0  0  0  0  0  0  0  0  0
   -0.6725    0.0200    0.0000 C   0  0  0  0  0  0  0  0  0  0  0  0
    1.4103   -1.1627    0.0000 C   0  0  0  0  0  0  0  0  0  0  0  0
   -1.4103    1.1627   -0.0000 C   0  0  0  0  0  0  0  0  0  0  0  0
    2.7490   -1.1982    0.0000 C   0  0  0  0  0  0  0  0  0  0  0  0
   -2.7490    1.1982   -0.0000 C   0  0  0  0  0  0  0  0  0  0  0  0
    1.1639    0.8475   -0.0000 H   0  0  0  0  0  0  0  0  0  0  0  0
   -1.1639   -0.8475   -0.0000 H   0  0  0  0  0  0  0  0  0  0  0  0
    0.9432   -2.0428   -0.0000 H   0  0  0  0  0  0  0  0  0  0  0  0
   -0.9432    2.0428    0.0000 H   0  0  0  0  0  0  0  0  0  0  0  0
    3.2312   -2.0658    0.0000 H   0  0  0  0  0  0  0  0  0  0  0  0
    3.2961   -0.3694   -0.0000 H   0  0  0  0  0  0  0  0  0  0  0  0
   -3.2312    2.0658    0.0000 H   0  0  0  0  0  0  0  0  0  0  0  0
   -3.2961    0.3694    0.0000 H   0  0  0  0  0  0  0  0  0  0  0  0
  1  2  2  0  0  0  0
  1  3  1  0  0  0  0
  1  7  1  0  0  0  0
  2  4  1  0  0  0  0
  2  8  1  0  0  0  0
  3  5  2  0  0  0  0
  3  9  1  0  0  0  0
  4  6  2  0  0  0  0
  4 10  1  0  0  0  0
  5 11  1  0  0  0  0
  5 12  1  0  0  0  0
  6 13  1  0  0  0  0
  6 14  1  0  0  0  0
M  END

> <PUBCHEM_BONDANNOTATIONS>
1  2  1

> <StdInChI>
InChI=1S/C6H8/c1-3-5-6-4-2/h3-6H,1-2H2/b6-5+

> <StdInChIKey>
AFVDZBIIBXWASR-AATRIKPKSA-N

> <AuxInfo>
1/0/N:5,6,3,4,1,2/E:(1,2)(3,4)(5,6)/rA:14nCCCCCCHHHHHHHH/rB:d1;s1;s2;d3;d4;s1;s2;s3;s4;s5;s5;s6;s6;/rC:.6725,-.02,0;-.6725,.02,0;1.4103,-1.1627,0;-1.4103,1.1627,0;2.749,-1.1982,0;-2.749,1.1982,0;1.1639,.8475,0;-1.1639,-.8475,0;.9432,-2.0428,0;-.9432,2.0428,0;3.2312,-2.0658,0;3.2961,-.3694,0;-3.2312,2.0658,0;-3.2961,.3694,0;

> <Formula>
C6 H8

> <Mw>
80.12772

> <SMILES>
C(/[H])(\C([H])=C([H])[H])=C(\[H])/C([H])=C([H])[H]

> <CSID>
15830

$$$$
